2024_89_CemigReconfigurationCases/1_AlimsCemig/SRS10/LineConstantsCode.DSS
!--- OpenDSS Linecodes file generated from Show LINECONSTANTS command
!--- Frequency = 60 Hz, Earth resistivity = 4000 ohm-m
!--- Earth Model = Deri

New Linecode.cab102 nphases=3  Units=km
~ Rmatrix=[1.72736  |0.204247  1.72058  |0.198795  0.195566  1.71012  ]
~ Xmatrix=[0.964436  |0.530445  0.970257  |0.482851  0.537907  0.979277  ]
~ Cmatrix=[7.98528  |-2.08583  8.31718  |-1.15763  -2.17336  7.79733  ]

New Linecode.cab103 nphases=3  Units=km
~ Rmatrix=[1.163  |0.204247  1.15621  |0.198795  0.195566  1.14575  ]
~ Xmatrix=[0.946837  |0.530445  0.952658  |0.482851  0.537907  0.961678  ]
~ Cmatrix=[8.28547  |-2.22356  8.65671  |-1.21686  -2.31594  8.08623  ]

New Linecode.cab104 nphases=3  Units=km
~ Rmatrix=[0.806927  |0.202202  0.799915  |0.196565  0.193235  0.78912  ]
~ Xmatrix=[0.848913  |0.45166  0.858099  |0.406768  0.463433  0.872321  ]
~ Cmatrix=[8.6251  |-2.36964  9.03752  |-1.27437  -2.47055  8.40642  ]

New Linecode.cab107 nphases=3  Units=km
~ Rmatrix=[0.475185  |0.171758  0.469196  |0.16694  0.164104  0.459993  ]
~ Xmatrix=[0.751895  |0.382572  0.764147  |0.340142  0.39827  0.783101  ]
~ Cmatrix=[9.18344  |-2.62378  9.67301  |-1.3715  -2.73764  8.93465  ]

New Linecode.cab108 nphases=3  Units=km
~ Rmatrix=[0.366585  |0.171758  0.360596  |0.16694  0.164104  0.351393  ]
~ Xmatrix=[0.715639  |0.382572  0.727891  |0.340142  0.39827  0.746845  ]
~ Cmatrix=[9.81304  |-2.93964  10.4093  |-1.48951  -3.06447  9.53761  ]

New Linecode.cab202 nphases=3  Units=km
~ Rmatrix=[1.70233  |0.20144  1.71634  |0.197616  0.204603  1.70842  ]
~ Xmatrix=[0.965423  |0.475378  0.95339  |0.449799  0.530137  0.960179  ]
~ Cmatrix=[7.41296  |-1.38335  8.1701  |-0.911359  -2.29574  7.9033  ]

New Linecode.cab203 nphases=3  Units=km
~ Rmatrix=[1.14198  |0.20144  1.156  |0.197616  0.204603  1.14808  ]
~ Xmatrix=[0.947861  |0.475378  0.935827  |0.449799  0.530137  0.942616  ]
~ Cmatrix=[7.66358  |-1.46899  8.49351  |-0.958305  -2.45333  8.20268  ]

New Linecode.cab204 nphases=3  Units=km
~ Rmatrix=[0.79348  |0.199364  0.807967  |0.195415  0.202637  0.799775  ]
~ Xmatrix=[0.856342  |0.397864  0.837344  |0.374189  0.451054  0.848066  ]
~ Cmatrix=[7.93747  |-1.55372  8.85288  |-1.001  -2.6183  8.53213  ]

New Linecode.cab207 nphases=3  Units=km
~ Rmatrix=[0.464486  |0.170143  0.476921  |0.166759  0.172957  0.469885  ]
~ Xmatrix=[0.766138  |0.330915  0.74089  |0.308947  0.382696  0.755143  ]
~ Cmatrix=[8.38436  |-1.70208  9.45081  |-1.07473  -2.90746  9.07833  ]

New Linecode.cab208 nphases=3  Units=km
~ Rmatrix=[0.355886  |0.170143  0.368321  |0.166759  0.172957  0.361285  ]
~ Xmatrix=[0.739989  |0.330915  0.714742  |0.308947  0.382696  0.728995  ]
~ Cmatrix=[8.7687  |-1.84533  9.97723  |-1.14609  -3.1834  9.55823  ]

New Linecode.caba06 nphases=3  Units=km
~ Rmatrix=[0.906525  |0.191032  0.910009  |0.18918  0.190909  0.906283  ]
~ Xmatrix=[0.870528  |0.566355  0.86593  |0.584943  0.566517  0.870848  ]
~ Cmatrix=[13.0362  |-4.31322  12.4848  |-5.20241  -4.3156  13.0325  ]

New Linecode.caba08 nphases=3  Units=km
~ Rmatrix=[0.391367  |0.162229  0.394336  |0.160652  0.162125  0.391161  ]
~ Xmatrix=[0.744454  |0.502157  0.738328  |0.521557  0.502372  0.744879  ]
~ Cmatrix=[14.6018  |-4.94187  13.8777  |-6.0572  -4.94477  14.5974  ]

New Linecode.cabbt106 nphases=3  Units=km
~ Rmatrix=[1.80435  |0.267522  1.77317  |0.258066  0.243727  1.75601  ]
~ Xmatrix=[0.900622  |0.571537  0.926584  |0.527106  0.591465  0.941014  ]
~ Cmatrix=[10.4531  |-3.01324  10.4636  |-1.6135  -3.36187  9.44612  ]

New Linecode.cabbt107 nphases=3  Units=km
~ Rmatrix=[1.23969  |0.267522  1.20851  |0.258066  0.243727  1.19135  ]
~ Xmatrix=[0.883023  |0.571537  0.908985  |0.527106  0.591465  0.923415  ]
~ Cmatrix=[10.9828  |-3.26915  11.0354  |-1.70857  -3.637  9.89707  ]

New Linecode.cabbt108 nphases=3  Units=km
~ Rmatrix=[0.885884  |0.267869  0.853448  |0.258021  0.243146  0.835622  ]
~ Xmatrix=[0.747749  |0.461597  0.788976  |0.421785  0.493206  0.811847  ]
~ Cmatrix=[11.6364  |-3.53973  11.698  |-1.79238  -3.94518  10.4099  ]

New Linecode.cabbt803 nphases=3  Units=km
~ Rmatrix=[0.746864  |0.300602  0.724036  |0.312278  0.300602  0.746864  ]
~ Xmatrix=[0.287088  |0.179704  0.34599  |0.147528  0.179704  0.287088  ]
~ Cmatrix=[35.725  |-8.29418  25.4704  |0.710707  -8.29418  35.725  ]

New Linecode.cabbt805 nphases=3  Units=km
~ Rmatrix=[0.560794  |0.300602  0.537966  |0.312278  0.300602  0.560794  ]
~ Xmatrix=[0.266252  |0.179704  0.325154  |0.147528  0.179704  0.266252  ]
~ Cmatrix=[43.9673  |-11.6255  30.2267  |1.62898  -11.6255  43.9673  ]

New Linecode.cabbt809 nphases=3  Units=km
~ Rmatrix=[1.28098  |0.414101  1.25013  |0.429856  0.414101  1.28098  ]
~ Xmatrix=[0.523518  |0.382476  0.565785  |0.358788  0.382476  0.523518  ]
~ Cmatrix=[27.0505  |-6.62292  21.3127  |-1.84451  -6.62292  27.0505  ]

New Linecode.cabbt810 nphases=3  Units=km
~ Rmatrix=[1.1634  |0.300602  1.14057  |0.312278  0.300602  1.1634  ]
~ Xmatrix=[0.312258  |0.179704  0.37116  |0.147528  0.179704  0.312258  ]
~ Cmatrix=[29.1327  |-5.91032  21.5566  |0.237639  -5.91032  29.1327  ]

New Linecode.cabbt801 nphases=2  Units=km
~ Rmatrix=[1.27735  |0.415595  1.25638  ]
~ Xmatrix=[0.528473  |0.426112  0.557199  ]
~ Cmatrix=[32.0896  |-15.0364  25.8847  ]

New Linecode.cabbt807 nphases=2  Units=km
~ Rmatrix=[0.744179  |0.301712  0.728659  ]
~ Xmatrix=[0.293996  |0.222536  0.334029  ]
~ Cmatrix=[44.6476  |-21.4005  33.5317  ]

New Linecode.cabbt808 nphases=2  Units=km
~ Rmatrix=[1.16071  |0.301712  1.14519  ]
~ Xmatrix=[0.319165  |0.222536  0.359198  ]
~ Cmatrix=[33.7109  |-14.1644  26.3536  ]
